/*--------------------------------*- C++ -*----------------------------------*\
| =========                 |                                                 |
| \\      /  F ield         | OpenFOAM: The Open Source CFD Toolbox           |
|  \\    /   O peration     | Version:  2.2.0                                   |
|   \\  /    A nd           | Web:      http://www.OpenFOAM.org               |
|    \\/     M anipulation  |                                                 |
\*---------------------------------------------------------------------------*/
FoamFile
{
    version     2.0;
    format      ascii;
    class       dictionary;
    object      RASProperties;
}
// * * * * * * * * * * * * * * * * * * * * * * * * * * * * * * * * * * * * * //

RASModel        kEpsilon;

turbulence      on;

printCoeffs     on;

kEpsilonCoeffs
{
    Cmu              0.09;
    C1               1.44;
    C2               1.92;
    alphak           1.0;
    alphaEps         0.76923;
}

RNGkEpsilonCoeffs
{
    Cmu              0.0845; //1.0; 
    C1               1.142; //1.0;
    C2               1.68; //1.0;
    alphak           1.39; //1.0;
    alphaEps         1.39; //1.0; 
    eta0             4.38; //1.0; 
    beta             0.012; //1.0;
}

realizableKECoeffs
{
    Cmu              1.0; //0.09;
    A0               1.0; //4.0;
    C2               1.0; //1.9;
    alphak           1.0; //1;
    alphaEps         1.0; //0.833333;
}

kOmegaSSTCoeffs
{
    alphaK1          1.0; //0.85034;
    alphaK2          1.0; //1.0;
    alphaOmega1      1.0; //0.5;
    alphaOmega2      1.0; //0.85616;
    gamma1           1.0; //0.5532;
    gamma2           1.0; //0.4403;
    beta1            1.0; //0.0750;
    beta2            1.0; //0.0828;
    betaStar         1.0; //0.09;
    a1               1.0; //0.31;
    c1               1.0; //10;
    Cmu              1.0; //0.09;
}

wallFunctionCoeffs
{
    kappa            0.4187;
    E                9.0;
}

// ************************************************************************* //
